/*--------------------------------*- C++ -*----------------------------------*\
| =========                 |                                                 |
| \\      /  F ield         | OpenFOAM: The Open Source CFD Toolbox           |
|  \\    /   O peration     | Version:  2.1.1                                 |
|   \\  /    A nd           | Web:      www.OpenFOAM.org                      |
|    \\/     M anipulation  |                                                 |
\*---------------------------------------------------------------------------*/
FoamFile
{
    version     2.0;
    format      ascii;
    class       dictionary;
    object      motionProperties;
}
// * * * * * * * * * * * * * * * * * * * * * * * * * * * * * * * * * * * * * //

dynamicFvMesh      dynamicMotionSolverFvMesh;

motionSolverLibs ("libforcedRigidBodyMotion.so");

solver            forcedRigidBodyMotion;

forcedRigidBodyMotionCoeffs
    {
	patches 	(cylsurfHP);
	initialCoR			(2 0 0);
	initialAngle			(0 0 0);
	translationalAmplitude		(0 0 0);
	translationalFrequency		(0 0 0);
	rotationalAmplitude		(0 0.02618 0);
	rotationalFrequency		(0 3.1415 0);
	
	innerDistance		0.25;
	outerDistance		2;
	
	/*centreOfMass    (2.0 0.0 -0.133);
        centreOfRotation (2.0 0.0 -0.133); 
        momentOfInertia (0.805 0.805 0.25); //(1.61 1.61 0.5);
        mass            21.6; //43.2;
        rhoInf          1;  // needed only for solvers solving for kinematic pressure
        report          on;
	accelerationRelaxation 0.9;
        value           uniform (0 0 0);
    	solver
    	{
        	type Newmark;
   	}*/


    }

// ************************************************************************* //